THERMO ALL
   300.000  1000.000  5000.000
HE                      HE  1               G    300.00   5000.00 1000.00      1
 .250000000E+01 .000000000E+00 .000000000E+00 .000000000E+00 .000000000E+00    2
-.745375000E+03 .928723974E+00 .250000000E+01 .000000000E+00 .000000000E+00    3
 .000000000E+00 .000000000E+00-.745375000E+03 .928723974E+00                   4
AR                      AR  1               G    300.00   5000.00 1000.00      1
 .312500009E+01-.140625050E-02 .937500490E-06-.156250080E-09 .000000000E+00    2
-.940687583E+03 .103823694E+01 .250000000E+01 .000000000E+00 .000000000E+00    3
 .000000000E+00 .000000000E+00-.745375100E+03 .436600100E+01                   4
N2                      N   2               G    300.00   5000.00 1000.00      1
 .292663788E+01 .148797700E-02-.568476030E-06 .100970400E-09-.675335090E-14    2
-.922795384E+03 .598054018E+01 .329867700E+01 .140823990E-02-.396322180E-05    3
 .564151480E-08-.244485400E-11-.102090000E+04 .395037200E+01                   4
O2                      O   2               G    300.00   5000.00 1000.00      1
 .369757685E+01 .613519690E-03-.125884200E-06 .177528100E-10-.113643500E-14    2
-.123392966E+04 .318917125E+01 .321293600E+01 .112748610E-02-.575614990E-06    3
 .131387700E-08-.876855390E-12-.100524900E+04 .603473900E+01                   4
H2                      H   2               G    300.00   5000.00 1000.00      1
 .299142220E+01 .700064410E-03-.563382800E-07-.923157820E-11 .158275200E-14    2
-.835033546E+03-.135510641E+01 .329812400E+01 .824944120E-03-.814301470E-06    3
-.947543430E-10 .413487200E-12-.101252100E+04-.329409400E+01                   4
H2O                     H   2O   1          G    300.00   5000.00 1000.00      1
 .267214569E+01 .305629290E-02-.873026070E-06 .120099600E-09-.639161790E-14    2
-.298992115E+05 .686281125E+01 .338684200E+01 .347498200E-02-.635469590E-05    3
 .696858040E-08-.250658800E-11-.302081100E+05 .259023200E+01                   4
H2O2                    H   2O   2          G    300.00   5000.00 1000.00      1
 .457316594E+01 .433613590E-02-.147468900E-05 .234890300E-09-.143165410E-13    2
-.180069531E+05 .501137915E+00 .338875300E+01 .656922580E-02-.148501200E-06    3
-.462580510E-08 .247151410E-11-.176631400E+05 .678536300E+01                   4
CO                      C   1O   1          G    300.00   5000.00 1000.00      1
 .302507617E+01 .144268900E-02-.563082720E-06 .101858100E-09-.691095110E-14    2
-.142683499E+05 .610822521E+01 .326245100E+01 .151194100E-02-.388175520E-05    3
 .558194380E-08-.247495100E-11-.143105400E+05 .484889700E+01                   4
CO2                     C   1O   2          G    300.00   5000.00 1000.00      1
 .445362582E+01 .314016800E-02-.127841100E-05 .239399610E-09-.166903300E-13    2
-.489669524E+05-.955420007E+00 .227572400E+01 .992207230E-02-.104091100E-04    3
 .686668590E-08-.211728010E-11-.483731400E+05 .101884900E+02                   4
CH2O                    C   1H   2O   1     G    300.00   5000.00 1000.00      1
 .299560858E+01 .668132120E-02-.262895400E-05 .473715290E-09-.321251710E-13    2
-.153203666E+05 .691256052E+01 .165273100E+01 .126314400E-01-.188816790E-04    3
 .205003110E-07-.841323710E-11-.148654000E+05 .137848200E+02                   4
HCO3H                   C   1H   2O   3     G    300.00   5000.00 1378.00      1
 .987503581E+01 .464663708E-02-.167230522E-05 .268624413E-09-.159595232E-13    2
-.380502456E+05-.224938942E+02 .242464726E+01 .219706380E-01-.168705546E-04    3
 .625612194E-08-.911645843E-12-.354828006E+05 .175027796E+02                   4
CH4                     C   1H   4          G    300.00   5000.00 1000.00      1
 .168346564E+01 .102372400E-01-.387512820E-05 .678558490E-09-.450342310E-13    2
-.100807773E+05 .962347575E+01 .778741700E+00 .174766800E-01-.278340900E-04    3
 .304970800E-07-.122393100E-10-.982522800E+04 .137221900E+02                   4
CH3OH                   C   1H   4O   1     G    300.00   5000.00 1000.00      1
 .402907793E+01 .937659290E-02-.305025380E-05 .435879300E-09-.222472310E-13    2
-.261579223E+05 .237808255E+01 .266011500E+01 .734150780E-02 .717005010E-05    3
-.879319370E-08 .239056990E-11-.253534800E+05 .112326300E+02                   4
CH3OOH                  C   1H   4O   2     G    300.00   5000.00 1000.00      1
 .563694993E+01 .111814780E-01-.369593390E-05 .407189810E-09 .000000000E+00    2
-.180442749E+05-.124166637E+01 .586865100E+01 .107942400E-01-.364552990E-05    3
 .541291180E-09-.289684390E-13-.181268900E+05-.251762300E+01                   4
C2H2                    C   2H   2          G    300.00   5000.00 1000.00      1
 .443677300E+01 .537603910E-02-.191281610E-05 .328637890E-09-.215670900E-13    2
 .256676622E+05-.280035722E+01 .201356200E+01 .151904500E-01-.161631910E-04    3
 .907899180E-08-.191274600E-11 .261244400E+05 .880537800E+01                   4
CH2CO                   C   2H   2O   1     G    300.00   5000.00 1000.00      1
 .603885318E+01 .580484000E-02-.192095400E-05 .279448500E-09-.145886800E-13    2
-.858343402E+04-.765782305E+01 .297497100E+01 .121187100E-01-.234504600E-05    3
-.646668500E-08 .390564900E-11-.763263700E+04 .867355300E+01                   4
C2H2O2                  C   2H   2O   2     G    300.00   5000.00 1386.00      1
 .975438561E+01 .497645947E-02-.174410483E-05 .275586994E-09-.161969892E-13    2
-.295832896E+05-.261878329E+02 .188105120E+01 .236386368E-01-.183443295E-04    3
 .684842963E-08-.992733674E-12-.269280190E+05 .159154793E+02                   4
C2H4                    C   2H   4          G    300.00   5000.00 1000.00      1
 .352841648E+01 .114851800E-01-.441838480E-05 .784460000E-09-.526684780E-13    2
 .442829030E+04 .223039249E+01-.861487900E+00 .279616190E-01-.338867690E-04    3
 .278515200E-07-.973787890E-11 .557304700E+04 .242114800E+02                   4
CH3CHO                  C   2H   4O   1     G    300.00   5000.00 1000.00      1
 .586869116E+01 .107942400E-01-.364552990E-05 .541291180E-09-.289684390E-13    2
-.226457128E+05-.601321650E+01 .250569500E+01 .133699100E-01 .467195290E-05    3
-.112814000E-07 .426356610E-11-.212458800E+05 .133508900E+02                   4
C2H4O                   C   2H   4O   1     G    300.00   5000.00 1000.00      1
 .385543260E+01 .146081760E-01-.526121540E-05 .628115500E-09 .000000000E+00    2
-.851874300E+04 .214156911E+01-.130385500E+01 .282461720E-01-.170593430E-04    3
 .394753470E-08 .000000000E+00-.707559900E+04 .289352600E+02                   4
CH3COOH                 C   2H   4O   2     G    300.00   5000.00 1000.00      1
 .691666936E+01 .128920800E-01-.420990320E-05 .458049540E-09 .000000000E+00    2
-.553508487E+05-.102392103E+02 .846928500E+00 .292145000E-01-.186455200E-04    3
 .464098720E-08 .000000000E+00-.536761800E+05 .211901500E+02                   4
C2H4O2                  C   2H   4O   2     G    300.00   5000.00 1358.00      1
 .887306567E+01 .992257253E-02-.334820779E-05 .515546009E-09-.297527820E-13    2
-.410084739E+05-.182786314E+02 .437688685E+01 .159485358E-01-.363672718E-05    3
-.179212805E-08 .741898956E-12-.389689472E+05 .750888268E+01                   4
CH3CO3H                 C   2H   4O   3     G    300.00   5000.00 1000.00      1
 .114777196E+02 .831667150E-02-.185084560E-05 .103274160E-09 .000000000E+00    2
-.451075908E+05-.290204723E+02 .484746000E+01 .218580610E-01-.904284660E-05    3
 .384145300E-09 .000000000E+00-.429209100E+05 .674072600E+01                   4
C2-OQOOH                C   2H   4O   3     G    300.00   5000.00 1380.00      1
 .124064339E+02 .947233784E-02-.328107928E-05 .513772211E-09-.299872803E-13    2
-.349123142E+05-.339479874E+02 .552382546E+01 .242068306E-01-.152898974E-04    3
 .501728362E-08-.696406358E-12-.323406789E+05 .357240645E+01                   4
DME-OQOOH               C   2H   4O   4     G    300.00   5000.00 1000.00      1
 .114777196E+02 .831667150E-02-.185084560E-05 .103274160E-09 .000000000E+00    2
-.451075908E+05-.290204723E+02 .484746000E+01 .218580610E-01-.904284660E-05    3
 .384145300E-09 .000000000E+00-.429209100E+05 .674072600E+01                   4
C2H6                    C   2H   6          G    300.00   5000.00 1000.00      1
 .482597579E+01 .138404300E-01-.455725790E-05 .672496720E-09-.359816110E-13    2
-.127178296E+05-.523976258E+01 .146253900E+01 .154946700E-01 .578050690E-05    3
-.125783200E-07 .458626710E-11-.112391800E+05 .144322900E+02                   4
CH3OCH3                 C   2H   6O   1     G    300.00   5000.00 1368.00      1
 .827732656E+01 .132135539E-01-.453264362E-05 .705316507E-09-.409933283E-13    2
-.261980897E+05-.215181376E+02 .150763450E+01 .239914228E-01-.868910500E-05    3
-.966835762E-10 .489319361E-12-.232810894E+05 .167317297E+02                   4
C2H5OH                  C   2H   6O   1     G    300.00   5000.00 1000.00      1
 .434717120E+01 .186288000E-01-.677946700E-05 .816592600E-09 .000000000E+00    2
-.306615743E+05 .324247304E+01 .576535800E+00 .289451200E-01-.161002000E-04    3
 .359164100E-08 .000000000E+00-.296359500E+05 .227081300E+02                   4
GLIET                   C   2H   6O   2     G    300.00   5000.00 1401.00      1
 .936137341E+01 .139727496E-01-.460325193E-05 .696470779E-09-.396758376E-13    2
-.507704265E+05-.211659058E+02 .875442184E+00 .347430045E-01-.244109224E-04    3
 .942412745E-08-.152824605E-11-.479084203E+05 .240879974E+02                   4
C2H5OOH                 C   2H   6O   2     G    300.00   5000.00 1000.00      1
 .914611907E+01 .144611400E-01-.455120020E-05 .475780030E-09 .000000000E+00    2
-.236690607E+05-.205899250E+02 .223998300E+01 .310914290E-01-.170933710E-04    3
 .329379790E-08 .000000000E+00-.216018500E+05 .158174300E+02                   4
C3H2                    C   3H   2          G    300.00   5000.00 1000.00      1
 .767099642E+01 .274874900E-02-.437094300E-06-.645559900E-10 .166388700E-13    2
 .625972092E+05-.123689926E+02 .316671400E+01 .248257200E-01-.459163700E-04    3
 .426801900E-07-.148215200E-10 .635042100E+05 .886944600E+01                   4
AC3H4                   C   3H   4          G    300.00   5000.00 1400.00      1
 .977625145E+01 .530213820E-02-.370111790E-06-.302638610E-09 .508958110E-13    2
 .195497314E+05-.307705909E+02 .253983090E+01 .163343700E-01-.176495000E-05    3
-.464736520E-08 .172913110E-11 .225124300E+05 .993570230E+01                   4
PC3H4                   C   3H   4          G    300.00   5000.00 1400.00      1
 .976810151E+01 .521915080E-02-.375313990E-06-.299219090E-09 .510787800E-13    2
 .186027740E+05-.302067860E+02 .302973010E+01 .149896100E-01-.139850000E-05    3
-.396961890E-08 .138821700E-11 .214840800E+05 .800459380E+01                   4
C2H3CHO                 C   3H   4O   1     G    300.00   5000.00 1393.00      1
 .104184607E+02 .948963321E-02-.329310529E-05 .516279203E-09-.301587291E-13    2
-.149629790E+05-.307232511E+02 .292355162E+00 .354321417E-01-.294936324E-04    3
 .128100124E-07-.226144108E-11-.116521584E+05 .228878280E+02                   4
C3H4O2                  C   3H   4O   2     G    300.00   5000.00 1404.00      1
 .130577477E+02 .906905120E-02-.308189261E-05 .476481380E-09-.275669277E-13    2
-.369274825E+05-.425273740E+02 .147485987E+00 .464706296E-01-.451901760E-04    3
 .219641008E-07-.416219125E-11-.331809255E+05 .242182934E+02                   4
C3H4O3                  C   3H   4O   3     G    300.00   5000.00 1388.00      1
 .137530675E+02 .108054207E-01-.364230159E-05 .560730953E-09-.323659923E-13    2
-.577839662E+05-.401019465E+02 .208981535E+01 .383715226E-01-.282590499E-04    3
 .104299134E-07-.153140407E-11-.538199819E+05 .223338530E+02                   4
C3H6                    C   3H   6          G    300.00   5000.00 1000.00      1
 .673231663E+01 .149083400E-01-.494989900E-05 .721202210E-09-.376620390E-13    2
-.923623057E+03-.133137684E+02 .149330700E+01 .209251700E-01 .448679380E-05    3
-.166891190E-07 .715814600E-11 .107482600E+04 .161453400E+02                   4
CH3COCH3                C   3H   6O   1     G    300.00   5000.00 1374.00      1
 .991426580E+01 .146030709E-01-.506085765E-05 .792682855E-09-.462739645E-13    2
-.311168055E+05-.286116537E+02 .130767163E+01 .292021742E-01-.119045617E-04    3
 .652150087E-09 .467751203E-12-.275328269E+05 .196395025E+02                   4
C2H5CHO                 C   3H   6O   1     G    300.00   5000.00 1378.00      1
 .102429148E+02 .139641989E-01-.476248001E-05 .738105706E-09-.427759503E-13    2
-.274145137E+05-.285357348E+02 .216308444E+01 .295501264E-01-.152446252E-04    3
 .349503947E-08-.238896627E-12-.242260137E+05 .161153348E+02                   4
C3H6O2                  C   3H   6O   2     G    300.00   5000.00 1382.00      1
 .118936666E+02 .144153203E-01-.477525443E-05 .726036430E-09-.415285995E-13    2
-.459271652E+05-.327285750E+02 .266613285E+01 .346302298E-01-.214380719E-04    3
 .690469334E-08-.916939105E-12-.425706030E+05 .173358364E+02                   4
C3H8                    C   3H   8          G    300.00   5000.00 1000.00      1
 .752530602E+01 .188903400E-01-.628392400E-05 .917937280E-09-.481240960E-13    2
-.164646226E+05-.178445202E+02 .896921000E+00 .266898590E-01 .543142510E-05    3
-.212600000E-07 .924333010E-11-.139549200E+05 .193553300E+02                   4
IC3H7OH                 C   3H   8O   1     G    300.00   5000.00 1000.00      1
 .577239007E+01 .268947430E-01-.111795290E-04 .211392460E-08-.149320990E-12    2
-.361710675E+05-.384089810E+01-.176838920E+00 .452559560E-01-.319190720E-04    3
 .123062880E-07-.201412540E-11-.346643940E+05 .263322250E+02                   4
NC3H7OH                 C   3H   8O   1     G    300.00   5000.00 1396.00      1
 .107520626E+02 .180260472E-01-.603049401E-05 .922166246E-09-.529319319E-13    2
-.361555719E+05-.310977038E+02 .978207214E-01 .420500918E-01-.267066894E-04    3
 .903941170E-08-.128324751E-11-.323437836E+05 .264700804E+02                   4
C4H2                    C   4H   2          G    300.00   5000.00 1000.00      1
 .903147468E+01 .604725210E-02-.194878790E-05 .275486300E-09-.138560800E-13    2
 .529472934E+05-.238511290E+02 .400519100E+01 .198100000E-01-.986587660E-05    3
-.663515820E-08 .607741290E-11 .542406400E+05 .184573600E+01                   4
C4H4                    C   4H   4          G    300.00   5000.00 1000.00      1
 .665080310E+01 .161294300E-01-.719388700E-05 .149817800E-08-.118641100E-12    2
 .311958636E+05-.979559836E+01-.191524700E+01 .527508700E-01-.716559400E-04    3
 .550724200E-07-.172862200E-10 .329785000E+05 .314199800E+02                   4
C4H4O                   C   4H   4O   1     G    300.00   5000.00 1000.00      1
 .135912211E+02 .987450910E-02-.345325238E-05 .544429808E-09-.319349896E-13    2
-.115639534E+05-.542513644E+02-.750030326E+01 .699899868E-01-.695485649E-04    3
 .333968809E-07-.619467883E-11-.541634292E+04 .550218432E+02                   4
C4H6                    C   4H   6          G    300.00   5000.00 1000.00      1
 .125443621E+02 .959652480E-02-.918701180E-06-.542964010E-09 .100536400E-12    2
 .859733026E+04-.421744899E+02 .193162400E+01 .247903000E-01 .301807110E-05    3
-.115468600E-07 .258662300E-11 .125546800E+05 .170199900E+02                   4
IC3H5CHO                C   4H   6O   1     G    300.00   5000.00 1396.00      1
 .136175682E+02 .137917192E-01-.473370118E-05 .736655226E-09-.420097974E-13    2
-.199994281E+05-.472987367E+02 .627183793E+00 .466780254E-01-.374430631E-04    3
 .158330542E-07-.273952155E-11-.157203117E+05 .216034294E+02                   4
C4H6O2                  C   4H   6O   2     G    300.00   5000.00 1375.00      1
 .135393551E+02 .168328392E-01-.587873230E-05 .925553795E-09-.542254877E-13    2
-.462482008E+05-.437360830E+02 .182538964E+01 .377978336E-01-.172044878E-04    3
 .195698878E-08 .398612932E-12-.415126261E+05 .214925508E+02                   4
NC4H8                   C   4H   8          G    300.00   5000.00 1000.00      1
 .251760440E+01 .319486740E-01-.122356630E-04 .153575210E-08 .000000000E+00    2
-.274629970E+04 .129895660E+02 .362537800E+01 .221550890E-01 .956696840E-05    3
-.171198400E-07 .553877210E-11-.266868100E+04 .906344400E+01                   4
IC4H8                   C   4H   8          G    300.00   5000.00 1388.00      1
 .112258330E+02 .181795798E-01-.620348592E-05 .961444458E-09-.557088057E-13    2
-.769983777E+04-.373306704E+02 .938433173E+00 .390547287E-01-.216437148E-04    3
 .587267077E-08-.614435479E-12-.374817891E+04 .191442985E+02                   4
C4H8O                   C   4H   8O   1     G    300.00   5000.00 1000.00      1
 .121286202E+02 .207717554E-01-.709427849E-05 .110054667E-08-.638233888E-13    2
-.291953026E+05-.437916754E+02-.564642338E+01 .609493367E-01-.410405635E-04    3
 .138124157E-07-.183880910E-11-.229339526E+05 .520711050E+02                   4
IC3H7CHO                C   4H   8O   1     G    300.00   5000.00 1391.00      1
 .137503148E+02 .183126722E-01-.628572629E-05 .978250756E-09-.568538653E-13    2
-.326938845E+05-.477281342E+02-.273021382E+00 .489696307E-01-.312770049E-04    3
 .100052945E-07-.127512074E-11-.276054737E+05 .283451139E+02                   4
DMGLE                   C   4H  10O   2     G    300.00   5000.00 1000.00      1
 .829107949E+01 .372750773E-01-.181563460E-04 .448187855E-08-.439836086E-12    2
-.474564172E+05-.181010963E+02-.232439072E+01 .709297146E-01-.583562575E-04    3
 .259747131E-07-.477192623E-11-.447750858E+05 .355920369E+02                   4
C5H4O2                  C   5H   4O   2     G    300.00   5000.00 1000.00      1
 .159553578E+02 .122096134E-01-.419491662E-05 .654219009E-09-.381060338E-13    2
-.255664634E+05-.596830465E+02-.186260023E+01 .570946426E-01-.476338594E-04    3
 .197949337E-07-.326585828E-11-.197873020E+05 .347179869E+02                   4
CYC5H6                  C   5H   6          G    300.00   5000.00 1000.00      1
 .968996604E+01 .183826200E-01-.626488420E-05 .939337720E-09-.508770810E-13    2
 .110211212E+05-.312300997E+02-.319673900E+01 .408136100E-01 .681650480E-06    3
-.313745900E-07 .157722310E-10 .152906800E+05 .386993800E+02                   4
C5H8                    C   5H   8          G    300.00   5000.00 1000.00      1
 .797205310E+01 .268614160E-01-.956546320E-05 .113079120E-08 .000000000E+00    2
 .510466811E+04-.185090870E+02 .176636500E+01 .432678800E-01-.237613290E-04    3
 .512588110E-08 .000000000E+00 .684030700E+04 .137180600E+02                   4
C5H8O4                  C   5H   8O   4     G    300.00   5000.00 1000.00      1
 .217298154E+02 .217807665E-01-.749545594E-05 .116860895E-08-.680038942E-13    2
-.866505360E+05-.835752527E+02-.684199090E+01 .100610553E+00-.924172541E-04    3
 .429800586E-07-.789719358E-11-.779623201E+05 .655426910E+02                   4
IC5H10                  C   5H  10          G    300.00   5000.00 1000.00      1
 .124808598E+02 .240088830E-01-.777773490E-05 .119128510E-08-.709457860E-13    2
-.864177347E+04-.392940217E+02-.599261880E+00 .540460090E-01-.294562720E-04    3
 .525642110E-08 .585451010E-12-.450159910E+04 .303432560E+02                   4
MTBE-O                  C   5H  10O   2     G    300.00   5000.00 1397.00      1
 .193844587E+02 .224929046E-01-.748169734E-05 .114123661E-08-.654437288E-13    2
-.558416627E+05-.795832532E+02-.518049059E+01 .839546669E-01-.663790553E-04    3
 .267623941E-07-.432034827E-11-.478415885E+05 .506953652E+02                   4
MTBE-OQOOH              C   5H  10O   4     G    300.00   5000.00 1386.00      1
 .259492704E+02 .217762181E-01-.754080079E-05 .118109778E-08-.689663912E-13    2
-.659884236E+05-.102260628E+03 .215705064E+01 .770950997E-01-.562944956E-04    3
 .205751475E-07-.301215733E-11-.577585957E+05 .255153989E+02                   4
MTBE                    C   5H  12O   1     G    300.00   5000.00 1000.00      1
 .888656643E+01 .420057870E-01-.178904220E-04 .345077750E-08-.247674430E-12    2
-.405353691E+05-.208281992E+02-.162610860E+01 .742240170E-01-.539682020E-04    3
 .210023490E-07-.342702090E-11-.378579060E+05 .325557600E+02                   4
C6H6                    C   6H   6          G    300.00   5000.00 1000.00      1
 .129109067E+02 .172329600E-01-.502421020E-05 .589349680E-09-.194752100E-13    2
 .366437279E+04-.500281184E+02-.313801200E+01 .472310300E-01-.296220700E-05    3
-.326281900E-07 .171869100E-10 .889003000E+04 .365757300E+02                   4
C6H5OH                  C   6H   6O   1     G    300.00   5000.00 1000.00      1
 .182166229E+02 .114240000E-01-.109668300E-05-.642744200E-09 .119889300E-12    2
-.205367891E+05-.730440712E+02 .139146000E+01 .393196000E-01 .177709600E-05    3
-.227767300E-07 .830965900E-11-.147218100E+05 .191781000E+02                   4
C6H6O3                  C   6H   6O   3     G    300.00   5000.00 1382.00      1
 .193892545E+02 .186134462E-01-.631148097E-05 .975462374E-09-.564561412E-13    2
-.492678935E+05-.716786498E+02 .598814621E+00 .618493802E-01-.438009436E-04    3
 .155531333E-07-.220506530E-11-.427313109E+05 .293828012E+02                   4
C6H8O4                  C   6H   8O   4     G    300.00   5000.00 1398.00      1
 .245389912E+02 .222706283E-01-.773806446E-05 .121423501E-08-.709771757E-13    2
-.816610603E+05-.100550137E+03-.460104207E+01 .100736116E+00-.905484350E-04    3
 .413812870E-07-.752102026E-11-.725801173E+05 .522649333E+02                   4
C6H10O5                 C   6H  10O   5     G    300.00   5000.00 1000.00      1
 .279850422E+02 .264166682E-01-.913640739E-05 .142923991E-08-.833656585E-13    2
-.114313686E+06-.117754445E+03-.781241700E+01 .125424511E+00-.116271866E-03    3
 .544734561E-07-.100746170E-10-.103428291E+06 .690300863E+02                   4
DIPE                    C   6H  14O   1     G    300.00   5000.00 1000.00      1
 .961994133E+01 .527564090E-01-.244349190E-04 .491563770E-08-.360965330E-12    2
-.452985516E+05-.220408754E+02-.207944820E+01 .869029220E-01-.602649600E-04    3
 .209337360E-07-.299614610E-11-.422065600E+05 .378635810E+02                   4
TAME                    C   6H  14O   1     G    300.00   5000.00 1000.00      1
 .102413361E+02 .494717450E-01-.210657300E-04 .406005360E-08-.291140680E-12    2
-.438310029E+05-.257392482E+02-.184725690E+01 .864624650E-01-.624059780E-04    3
 .241227640E-07-.391573010E-11-.407484470E+05 .356637750E+02                   4
ETBE                    C   6H  14O   1     G    300.00   5000.00 1000.00      1
 .107600227E+02 .484809450E-01-.204693300E-04 .391707780E-08-.279248340E-12    2
-.456695052E+05-.288336460E+02-.321171820E+01 .924083860E-01-.712212230E-04    3
 .295255040E-07-.509148160E-11-.421838470E+05 .417951430E+02                   4
C8H10O3                 C   8H  10O   3     G    300.00   5000.00 1398.00      1
 .397849303E+02 .299091586E-01-.998077835E-05 .152593734E-08-.876494369E-13    2
-.745243570E+05-.176764109E+03-.309175183E+01 .150401311E+00-.141589395E-03    3
 .669336732E-07-.124095424E-10-.617648649E+05 .461394338E+02                   4
C9H10O2                 C   9H  10O   2     G    300.00   5000.00 1400.00      1
 .279893805E+02 .257305292E-01-.858901356E-05 .131357222E-08-.754726372E-13    2
-.378460988E+05-.119703580E+03-.219761532E+01 .995964750E-01-.769418656E-04    3
 .296736479E-07-.451992280E-11-.279092089E+05 .408797910E+02                   4
C10H8                   C  10H   8          G    300.00   5000.00 1401.00      1
 .234023214E+02 .242434427E-01-.836282016E-05 .130620111E-08-.761153748E-13    2
 .651941329E+04-.107433208E+03-.883645988E+01 .109300567E+00-.955200914E-04    3
 .421647669E-07-.739851710E-11 .166533366E+05 .621064766E+02                   4
C11H12O4                C  11H  12O   4     G    300.00   5000.00 1398.00      1
 .397849303E+02 .299091586E-01-.998077835E-05 .152593734E-08-.876494369E-13    2
-.745243570E+05-.176764109E+03-.309175183E+01 .150401311E+00-.141589395E-03    3
 .669336732E-07-.124095424E-10-.617648649E+05 .461394338E+02                   4
O                       O   1               G    300.00   5000.00 1000.00      1
 .254205876E+01-.275506100E-04-.310280290E-08 .455106700E-11-.436805100E-15    2
 .292307989E+05 .492030884E+01 .294642800E+01-.163816600E-02 .242103100E-05    3
-.160284300E-08 .389069610E-12 .291476400E+05 .296399500E+01                   4
H                       H   1               G    300.00   5000.00 1000.00      1
 .250000000E+01 .000000000E+00 .000000000E+00 .000000000E+00 .000000000E+00    2
 .254716200E+05-.460117600E+00 .250000000E+01 .000000000E+00 .000000000E+00    3
 .000000000E+00 .000000000E+00 .254716200E+05-.460117600E+00                   4
OH                      H   1O   1          G    300.00   5000.00 1710.00      1
 .285376040E+01 .102994334E-02-.232666477E-06 .193750704E-10-.315759847E-15    2
 .369949720E+04 .578756825E+01 .341896226E+01 .319255801E-03-.308292717E-06    3
 .364407494E-09-.100195479E-12 .345264448E+04 .254433372E+01                   4
HO2                     H   1O   2          G    300.00   5000.00 1000.00      1
 .401721090E+01 .223982013E-02-.633658150E-06 .114246370E-09-.107908535E-13    2
 .111856713E+03 .378510215E+01 .430179801E+01-.474912051E-02 .211582891E-04    3
-.242763894E-07 .929225124E-11 .294808040E+03 .371666245E+01                   4
C                       C   1               G    300.00   5000.00 1000.00      1
 .249266888E+01 .479889284E-04-.724335020E-07 .374291029E-10-.487277893E-14    2
 .854512953E+05 .480150373E+01 .255423955E+01-.321537724E-03 .733792245E-06    3
-.732234889E-09 .266521446E-12 .854438832E+05 .453130848E+01                   4
CH                      C   1H   1          G    300.00   5000.00 1000.00      1
 .219622115E+01 .234038100E-02-.705820130E-06 .900758220E-10-.385504010E-14    2
 .708672121E+05 .917838138E+01 .320020200E+01 .207287490E-02-.513443090E-05    3
 .573388980E-08-.195553300E-11 .704525700E+05 .333158700E+01                   4
HCO                     C   1H   1O   1     G    300.00   5000.00 1000.00      1
 .355727119E+01 .334557190E-02-.133500600E-05 .247057210E-09-.171385000E-13    2
 .391632208E+04 .555229973E+01 .289832900E+01 .619914620E-02-.962308420E-05    3
 .108982500E-07-.457488520E-11 .415992100E+04 .898361500E+01                   4
HCO3                    C   1H   1O   3     G    300.00   5000.00 1368.00      1
 .724073447E+01 .463312951E-02-.163693995E-05 .259706693E-09-.152964699E-13    2
-.187027386E+05-.649534993E+01 .396059309E+01 .106002279E-01-.525713351E-05    3
 .101716726E-08-.287487602E-13-.173599383E+05 .117807483E+02                   4
CH2S                    C   1H   2          G    300.00   5000.00 1000.00      1
 .355288641E+01 .206678800E-02-.191411600E-06-.110467300E-09 .202134890E-13    2
 .498497521E+05 .168658499E+01 .397126500E+01-.169908800E-03 .102536900E-05    3
 .249254990E-08-.198126610E-11 .498936700E+05 .575320760E-01                   4
CH2                     C   1H   2          G    300.00   5000.00 1000.00      1
 .363640757E+01 .193305600E-02-.168701600E-06-.100989900E-09 .180825510E-13    2
 .453413341E+05 .215656196E+01 .376223700E+01 .115981900E-02 .248958490E-06    3
 .880083620E-09-.733243490E-12 .453679000E+05 .171257700E+01                   4
CH3                     C   1H   3          G    300.00   5000.00 1000.00      1
 .284405718E+01 .613797410E-02-.223034500E-05 .378516110E-09-.245215900E-13    2
 .164378004E+05 .545265727E+01 .243044200E+01 .111241000E-01-.168022000E-04    3
 .162182910E-07-.586495220E-11 .164237800E+05 .678979400E+01                   4
CH2OH                   C   1H   3O   1     G    300.00   5000.00 1000.00      1
 .632751914E+01 .360827010E-02-.320154700E-06-.193875000E-09 .350970410E-13    2
-.447450931E+04-.832935988E+01 .286262800E+01 .100152700E-01-.528543520E-06    3
-.513853890E-08 .224604100E-11-.334967800E+04 .103979400E+02                   4
CH3O                    C   1H   3O   1     G    300.00   5000.00 1000.00      1
 .377081447E+01 .787149740E-02-.265638390E-05 .394443090E-09-.211261600E-13    2
 .127818951E+03 .292947482E+01 .210620400E+01 .721659510E-02 .533847200E-05    3
-.737763630E-08 .207561010E-11 .978601200E+03 .131521800E+02                   4
CH3OO                   C   1H   3O   2     G    300.00   5000.00 1385.00      1
 .595784570E+01 .790728626E-02-.268246234E-05 .413891337E-09-.239007330E-13    2
-.378178515E+03-.353671121E+01 .426146906E+01 .100873599E-01-.321506184E-05    3
 .209409267E-09 .418339103E-13 .473129653E+03 .634599067E+01                   4
C2H                     C   2H   1          G    300.00   5000.00 1000.00      1
 .316780603E+01 .475221900E-02-.183787070E-05 .304190250E-09-.177232770E-13    2
 .671210651E+05 .663589763E+01 .288965730E+01 .134099610E-01-.284769500E-04    3
 .294791040E-07-.109331510E-10 .668393930E+05 .622296430E+01                   4
HCCO                    C   2H   1O   1     G    300.00   5000.00 1000.00      1
 .675807437E+01 .200040010E-02-.202760700E-06-.104113200E-09 .196516400E-13    2
 .190151261E+05-.907126528E+01 .504796600E+01 .445347790E-02 .226828210E-06    3
-.148209400E-08 .225074100E-12 .196589100E+05 .481843900E+00                   4
C2H3                    C   2H   3          G    300.00   5000.00 1000.00      1
 .593346697E+01 .401774510E-02-.396673900E-06-.144126700E-09 .237864300E-13    2
 .318543468E+05-.853030497E+01 .245927600E+01 .737147590E-02 .210987200E-05    3
-.132164200E-08-.118478400E-11 .333522500E+05 .115562000E+02                   4
CH2CHO                  C   2H   3O   1     G    300.00   5000.00 1500.00      1
 .971005743E+01 .385496600E-02-.467782500E-06-.150517900E-09 .294142800E-13    2
-.269248263E+04-.281056408E+02 .280220500E+00 .274031100E-01-.255468300E-04    3
 .130667900E-07-.275042500E-11 .668264800E+03 .223973100E+02                   4
CH3CO                   C   2H   3O   1     G    300.00   5000.00 1000.00      1