/*--------------------------------*- C++ -*----------------------------------*\
| =========                 |                                                 |
| \\      /  F ield         | OpenFOAM: The Open Source CFD Toolbox           |
|  \\    /   O peration     | Version:  2.1.0                                 |
|   \\  /    A nd           | Web:      www.OpenFOAM.org                      |
|    \\/     M anipulation  |                                                 |
\*---------------------------------------------------------------------------*/
FoamFile
{
    version     2.0;
    format      ascii;
    class       dictionary;
    location    "constant";
    object      foam.dat;
}
// * * * * * * * * * * * * * * * * * * * * * * * * * * * * * * * * * * * * * //

CO2
{
    specie
    {
        nMoles          1;
        molWeight       44.0095;
    }
    thermodynamics
    {
        Tlow            200;
        Thigh           6000;
        Tcommon         1000;
        highCpCoeffs    ( 0.46365111E+01 0.27414569E-02 -0.99589759E-06 0.16038666E-09 -0.91619857E-14 -0.49024904E+05 -0.19348955E+01 );
        lowCpCoeffs     ( 0.23568130E+01 0.89841299E-02 -0.71220632E-05 0.24573008E-08 -0.14288548E-12 -0.48371971E+05  0.99009035E+01 );
    }
    transport
    {
        As              1.67212e-06;
        Ts              170.672;
    }
}

CO
{
    specie
    {
        nMoles          1;
        molWeight       28.0101;
    }
    thermodynamics
    {
        Tlow            200;
        Thigh           6000;
        Tcommon         1000;
        highCpCoeffs    ( 0.30484859E+01  0.13517281E-02 -0.48579405E-06 0.78853644E-10 -0.46980746E-14 -0.14266117E+05 0.60170977E+01 );
        lowCpCoeffs     ( 0.35795335E+01 -0.61035369E-03  0.10168143E-05 0.90700586E-09 -0.90442449E-12 -0.14344086E+05 0.35084093E+01 );

    }
    transport
    {
        As              1.67212e-06;
        Ts              170.672;
    }
}

CH4
{
    specie
    {
        nMoles          1;
        molWeight       16.0425;
    }
    thermodynamics
    {
        Tlow            200;
        Thigh           6000;
        Tcommon         1000;
        highCpCoeffs    ( 1.65326226E+00  1.00263099E-02 -3.31661238E-06  5.36483138E-10 -3.14696758E-14 -1.00095936E+04  9.90506283E+00 );
        lowCpCoeffs     ( 5.14911468E+00 -1.36622009E-02  4.91453921E-05 -4.84246767E-08  1.66603441E-11 -1.02465983E+04 -4.63848842E+00 );
    }
    transport
    {
        As              1.67212e-06;
        Ts              170.672;
    }
}

H2
{
    specie
    {
        nMoles          1;
        molWeight       2.01588;
    }
    thermodynamics
    {
        Tlow            200;
        Thigh           6000;
        Tcommon         1000;
        highCpCoeffs    ( 2.93286575E+00 8.26608026E-04 -1.46402364E-07  1.54100414E-11 -6.88804800E-16 -8.13065581E+02 -1.02432865E+00 );
        lowCpCoeffs     ( 2.34433112E+00 7.98052075E-03 -1.94781510E-05  2.01572094E-08 -7.37611761E-12 -9.17935173E+02  6.83010238E-01 );
    }
    transport
    {
        As              1.67212e-06;
        Ts              170.672;
    }
}

H2O
{
    specie
    {
        nMoles          1;
        molWeight       18.01528;
    }
    thermodynamics
    {
        Tlow            200;
        Thigh           6000;
        Tcommon         1000;
        highCpCoeffs    ( 0.26770389E+01  0.29731816E-02 -0.77376889E-06  0.94433514E-10 -0.42689991E-14 -0.29885894E+05  0.68825500E+01 );
        lowCpCoeffs     ( 0.41986352E+01 -0.20364017E-02  0.65203416E-05 -0.54879269E-08  0.17719680E-11 -0.30293726E+05 -0.84900901E+00 );
    }
    transport
    {
        As              1.67212e-06;
        Ts              170.672;
    }
}

O2
{
    specie
    {
        nMoles          1;
        molWeight       31.9988;
    }
    thermodynamics
    {
        Tlow            200;
        Thigh           6000;
        Tcommon         1000;
        highCpCoeffs    ( 3.66096065E+00  6.56365811E-04 -1.41149627E-07  2.05797935E-11 -1.29913436E-15 -1.21597718E+03 3.41536279E+00 );
        lowCpCoeffs     ( 3.78245636E+00 -2.99673416E-03  9.84730201E-06 -9.68129509E-09  3.24372837E-12 -1.06394356E+03 3.65767573E+00 );
    }
    transport
    {
        As              1.67212e-06;
        Ts              170.672;
    }
}

N2
{
    specie
    {
        nMoles          1;
        molWeight       28.0134;
    }
    thermodynamics
    {
        Tlow            200;
        Thigh           6000;
        Tcommon         1000;
        highCpCoeffs    ( 2.95257637E+00  1.39690040E-03 -4.92631603E-07  7.86010195E-11 -4.60755204E-15 -9.23948688E+02 5.87188762E+00 );
        lowCpCoeffs     ( 3.53100528E+00 -1.23660988E-04 -5.02999433E-07  2.43530612E-09 -1.40881235E-12 -1.04697628E+03 2.96747038E+00 );
    }
    transport
    {
        As              1.67212e-06;
        Ts              170.672;
    }
}

tar
{
    specie
    {
        nMoles          1;
        molWeight       81.45;
    }
    thermodynamics
    {
        Tlow            300;
        Thigh           5000;
        Tcommon         1401;
        highCpCoeffs    (  2.09408940E+01 2.04158480E-02 -7.04323518E-06 1.09988219E-09 -6.40750543E-14 -2.53662901E+04 -8.94615089E+01 );
        lowCpCoeffs     ( -5.82611270E+00 9.52301991E-02 -8.89715399E-05 4.21339354E-08 -7.87119970E-12 -1.72848417E+04  4.99599069E+01 );
    }
    transport
    {
        As              1.67212e-06;
        Ts              170.672;
    }
}

C2H4
{
    specie
    {
        nMoles          1;
        molWeight       28.0532;
    }
    thermodynamics
    {
        Tlow            200;
        Thigh           6000;
        Tcommon         1001;
        highCpCoeffs    ( 3.99182724E+00  1.04833908E-02 -3.71721342E-06  5.94628366E-10 -3.53630386E-14 4.26865851E+03 -2.69081762E-01);
        lowCpCoeffs     ( 3.95920063E+00 -7.57051373E-03  5.70989993E-05 -6.91588352E-08  2.69884190E-11 5.08977598E+03  4.09730213E+00);
    }
    transport
    {
        As              1.67212e-06;
        Ts              170.672;
    }
}

C2H6
{
    specie
    {
        nMoles          1;
        molWeight       30.069;
    }
    thermodynamics
    {
        Tlow            200;
        Thigh           6000;
        Tcommon         1000;
        highCpCoeffs    ( 4.04666411E+00  1.53538802E-02 -5.47039485E-06  8.77826544E-10 -5.23167531E-14 -1.24473499E+04 -9.68698313E-01 );
        lowCpCoeffs     ( 4.29142572E+00 -5.50154901E-03  5.99438458E-05 -7.08466469E-08  2.68685836E-11 -1.15222056E+04  2.66678994E+00 );
    }
    transport
    {
        As              1.67212e-06;
        Ts              170.672;
    }
}

// ************************************************************************* //
